Version 4
SHEET 1 2604 680
WIRE 32 -176 32 -256
WIRE 176 -176 176 -256
WIRE 32 0 32 -96
WIRE 176 0 176 -96
WIRE 176 112 176 80
WIRE 32 192 32 80
WIRE 128 192 32 192
WIRE 32 256 32 192
WIRE 176 256 176 208
WIRE 32 384 32 336
WIRE 176 384 176 336
FLAG 32 384 0
FLAG 176 384 0
FLAG 32 -256 0
FLAG 176 -256 0
SYMBOL res 16 -16 R0
SYMATTR InstName R1
SYMATTR Value 38.2k
SYMBOL res 160 -16 R0
SYMATTR InstName R2
SYMATTR Value 500
SYMBOL res 160 240 R0
SYMATTR InstName R3
SYMATTR Value 200
SYMBOL res 16 240 R0
SYMATTR InstName R4
SYMATTR Value 95.3k
SYMBOL voltage 32 -80 R180
WINDOW 0 24 96 Left 2
WINDOW 3 24 16 Left 2
WINDOW 123 0 0 Left 0
WINDOW 39 0 0 Left 0
SYMATTR InstName V1
SYMATTR Value 15
SYMBOL voltage 176 -80 R180
WINDOW 0 24 96 Left 2
WINDOW 3 24 16 Left 2
WINDOW 123 0 0 Left 0
WINDOW 39 0 0 Left 0
SYMATTR InstName V2
SYMATTR Value 15
SYMBOL nmos 128 112 R0
SYMATTR InstName M1
TEXT 16 408 Left 2 !.tran 3
